io/inputs/ExternalDSSfiles/IEEE_8500_BusUnbal-G/sub/Loads.dss
New "Load.226195333c0a" phases=1 bus1=sx2801909c.1 kV=0.12 status=variable model=1 conn=wye kW=3.6597389960289 pf=0.97 Vminpu=0.88
New "Load.226195333c0b" phases=1 bus1=sx2801909c.2 kV=0.12 status=variable model=1 conn=wye kW=0.4102610039711 pf=0.97 Vminpu=0.88
New "Load.223658a0a" phases=1 bus1=sx2823592a.1 kV=0.12 status=variable model=1 conn=wye kW=1.21636754393578 pf=0.97 Vminpu=0.88
New "Load.223658a0b" phases=1 bus1=sx2823592a.2 kV=0.12 status=variable model=1 conn=wye kW=0.553632456064224 pf=0.97 Vminpu=0.88
New "Load.223660c0a" phases=1 bus1=sx3160863c.1 kV=0.12 status=variable model=1 conn=wye kW=0.480949193239212 pf=0.97 Vminpu=0.88
New "Load.223660c0b" phases=1 bus1=sx3160863c.2 kV=0.12 status=variable model=1 conn=wye kW=5.61905080676079 pf=0.97 Vminpu=0.88
New "Load.223661c0a" phases=1 bus1=sx2730108c.1 kV=0.12 status=variable model=1 conn=wye kW=4.02298564910889 pf=0.97 Vminpu=0.88
New "Load.223661c0b" phases=1 bus1=sx2730108c.2 kV=0.12 status=variable model=1 conn=wye kW=2.07701435089111 pf=0.97 Vminpu=0.88
New "Load.223662c0a" phases=1 bus1=sx2786204c.1 kV=0.12 status=variable model=1 conn=wye kW=5.16334467053413 pf=0.97 Vminpu=0.88
New "Load.223662c0b" phases=1 bus1=sx2786204c.2 kV=0.12 status=variable model=1 conn=wye kW=10.0966553294659 pf=0.97 Vminpu=0.88
New "Load.223663c0a" phases=1 bus1=sx2936216c.1 kV=0.12 status=variable model=1 conn=wye kW=3.97553170561791 pf=0.97 Vminpu=0.88
New "Load.223663c0b" phases=1 bus1=sx2936216c.2 kV=0.12 status=variable model=1 conn=wye kW=0.0944682943820951 pf=0.97 Vminpu=0.88
New "Load.346639c0a" phases=1 bus1=sx2992556c.1 kV=0.12 status=variable model=1 conn=wye kW=2.26377986073494 pf=0.97 Vminpu=0.88
New "Load.346639c0b" phases=1 bus1=sx2992556c.2 kV=0.12 status=variable model=1 conn=wye kW=3.83622013926506 pf=0.97 Vminpu=0.88
New "Load.251867c0a" phases=1 bus1=sx2861157c.1 kV=0.12 status=variable model=1 conn=wye kW=2.71486888468266 pf=0.97 Vminpu=0.88
New "Load.251867c0b" phases=1 bus1=sx2861157c.2 kV=0.12 status=variable model=1 conn=wye kW=7.45513111531734 pf=0.97 Vminpu=0.88
New "Load.227411655c0a" phases=1 bus1=sx2806553c.1 kV=0.12 status=variable model=1 conn=wye kW=7.58249907195568 pf=0.97 Vminpu=0.88
New "Load.227411655c0b" phases=1 bus1=sx2806553c.2 kV=0.12 status=variable model=1 conn=wye kW=2.58750092804432 pf=0.97 Vminpu=0.88
New "Load.251865c0a" phases=1 bus1=sx3142050c.1 kV=0.12 status=variable model=1 conn=wye kW=5.40203474760056 pf=0.97 Vminpu=0.88
New "Load.251865c0b" phases=1 bus1=sx3142050c.2 kV=0.12 status=variable model=1 conn=wye kW=0.697965252399444 pf=0.97 Vminpu=0.88
New "Load.251862c0a" phases=1 bus1=sx3254873c.1 kV=0.12 status=variable model=1 conn=wye kW=6.05969550609589 pf=0.97 Vminpu=0.88
New "Load.251862c0b" phases=1 bus1=sx3254873c.2 kV=0.12 status=variable model=1 conn=wye kW=0.0403044939041139 pf=0.97 Vminpu=0.88
New "Load.251863c0a" phases=1 bus1=sx2745811c.1 kV=0.12 status=variable model=1 conn=wye kW=8.2485082000494 pf=0.97 Vminpu=0.88
New "Load.251863c0b" phases=1 bus1=sx2745811c.2 kV=0.12 status=variable model=1 conn=wye kW=1.9214917999506 pf=0.97 Vminpu=0.88
New "Load.226195194c0a" phases=1 bus1=sx3027124c.1 kV=0.12 status=variable model=1 conn=wye kW=8.15061146557331 pf=0.97 Vminpu=0.88
New "Load.226195194c0b" phases=1 bus1=sx3027124c.2 kV=0.12 status=variable model=1 conn=wye kW=2.01938853442669 pf=0.97 Vminpu=0.88
New "Load.2128517c0a" phases=1 bus1=sx3048890c.1 kV=0.12 status=variable model=1 conn=wye kW=2.07767812371254 pf=0.97 Vminpu=0.88
New "Load.2128517c0b" phases=1 bus1=sx3048890c.2 kV=0.12 status=variable model=1 conn=wye kW=8.09232187628746 pf=0.97 Vminpu=0.88
New "Load.2128464c0a" phases=1 bus1=sx3048889c.1 kV=0.12 status=variable model=1 conn=wye kW=8.3408244484663 pf=0.97 Vminpu=0.88
New "Load.2128464c0b" phases=1 bus1=sx3048889c.2 kV=0.12 status=variable model=1 conn=wye kW=1.8291755515337 pf=0.97 Vminpu=0.88
New "Load.251859c0a" phases=1 bus1=sx2952007c.1 kV=0.12 status=variable model=1 conn=wye kW=2.24143562614918 pf=0.97 Vminpu=0.88
New "Load.251859c0b" phases=1 bus1=sx2952007c.2 kV=0.12 status=variable model=1 conn=wye kW=7.92856437385082 pf=0.97 Vminpu=0.88
New "Load.251858c0a" phases=1 bus1=sx2861158c.1 kV=0.12 status=variable model=1 conn=wye kW=5.36943990826607 pf=0.97 Vminpu=0.88
New "Load.251858c0b" phases=1 bus1=sx2861158c.2 kV=0.12 status=variable model=1 conn=wye kW=4.80056009173393 pf=0.97 Vminpu=0.88
New "Load.251857c0a" phases=1 bus1=sx3064514c.1 kV=0.12 status=variable model=1 conn=wye kW=0.163874715566635 pf=0.97 Vminpu=0.88
New "Load.251857c0b" phases=1 bus1=sx3064514c.2 kV=0.12 status=variable model=1 conn=wye kW=5.93612528443336 pf=0.97 Vminpu=0.88
New "Load.251856c0a" phases=1 bus1=sx3048888c.1 kV=0.12 status=variable model=1 conn=wye kW=3.22170386314392 pf=0.97 Vminpu=0.88
New "Load.251856c0b" phases=1 bus1=sx3048888c.2 kV=0.12 status=variable model=1 conn=wye kW=2.87829613685608 pf=0.97 Vminpu=0.88
New "Load.226010605c0a" phases=1 bus1=sx2764411c.1 kV=0.12 status=variable model=1 conn=wye kW=1.27288566827774 pf=0.97 Vminpu=0.88
New "Load.226010605c0b" phases=1 bus1=sx2764411c.2 kV=0.12 status=variable model=1 conn=wye kW=4.82711433172226 pf=0.97 Vminpu=0.88
New "Load.356791c0a" phases=1 bus1=sx2767343c.1 kV=0.12 status=variable model=1 conn=wye kW=9.84576767802239 pf=0.97 Vminpu=0.88
New "Load.356791c0b" phases=1 bus1=sx2767343c.2 kV=0.12 status=variable model=1 conn=wye kW=5.41423232197761 pf=0.97 Vminpu=0.88
New "Load.356790c0a" phases=1 bus1=sx2804957c.1 kV=0.12 status=variable model=1 conn=wye kW=0.403316596746445 pf=0.97 Vminpu=0.88
New "Load.356790c0b" phases=1 bus1=sx2804957c.2 kV=0.12 status=variable model=1 conn=wye kW=3.66668340325356 pf=0.97 Vminpu=0.88
New "Load.356789c0a" phases=1 bus1=sx3048937c.1 kV=0.12 status=variable model=1 conn=wye kW=5.34781536459923 pf=0.97 Vminpu=0.88
New "Load.356789c0b" phases=1 bus1=sx3048937c.2 kV=0.12 status=variable model=1 conn=wye kW=0.752184635400772 pf=0.97 Vminpu=0.88
New "Load.356788c0a" phases=1 bus1=sx3176661c.1 kV=0.12 status=variable model=1 conn=wye kW=3.88153597831726 pf=0.97 Vminpu=0.88
New "Load.356788c0b" phases=1 bus1=sx3176661c.2 kV=0.12 status=variable model=1 conn=wye kW=0.188464021682739 pf=0.97 Vminpu=0.88
New "Load.356787c0a" phases=1 bus1=sx2970804c.1 kV=0.12 status=variable model=1 conn=wye kW=8.368930554986 pf=0.97 Vminpu=0.88
New "Load.356787c0b" phases=1 bus1=sx2970804c.2 kV=0.12 status=variable model=1 conn=wye kW=1.801069445014 pf=0.97 Vminpu=0.88
New "Load.225533423c0a" phases=1 bus1=sx2891575c.1 kV=0.12 status=variable model=1 conn=wye kW=3.07316675782204 pf=0.97 Vminpu=0.88
New "Load.225533423c0b" phases=1 bus1=sx2891575c.2 kV=0.12 status=variable model=1 conn=wye kW=3.02683324217796 pf=0.97 Vminpu=0.88
New "Load.21386442c0a" phases=1 bus1=sx3179637c.1 kV=0.12 status=variable model=1 conn=wye kW=10.6882667338848 pf=0.97 Vminpu=0.88
New "Load.21386442c0b" phases=1 bus1=sx3179637c.2 kV=0.12 status=variable model=1 conn=wye kW=4.57173326611519 pf=0.97 Vminpu=0.88
New "Load.228314460c0a" phases=1 bus1=sx3253570c.1 kV=0.12 status=variable model=1 conn=wye kW=0.654206818342209 pf=0.97 Vminpu=0.88
New "Load.228314460c0b" phases=1 bus1=sx3253570c.2 kV=0.12 status=variable model=1 conn=wye kW=9.51579318165779 pf=0.97 Vminpu=0.88
New "Load.227411650c0a" phases=1 bus1=sx2937757c.1 kV=0.12 status=variable model=1 conn=wye kW=7.91555637359619 pf=0.97 Vminpu=0.88
New "Load.227411650c0b" phases=1 bus1=sx2937757c.2 kV=0.12 status=variable model=1 conn=wye kW=2.25444362640381 pf=0.97 Vminpu=0.88
New "Load.262075c0a" phases=1 bus1=sx3067448c.1 kV=0.12 status=variable model=1 conn=wye kW=2.5817301017046 pf=0.97 Vminpu=0.88
New "Load.262075c0b" phases=1 bus1=sx3067448c.2 kV=0.12 status=variable model=1 conn=wye kW=7.5882698982954 pf=0.97 Vminpu=0.88
New "Load.225906836c0a" phases=1 bus1=sx2763407c.1 kV=0.12 status=variable model=1 conn=wye kW=3.98690813004971 pf=0.97 Vminpu=0.88
New "Load.225906836c0b" phases=1 bus1=sx2763407c.2 kV=0.12 status=variable model=1 conn=wye kW=6.18309186995029 pf=0.97 Vminpu=0.88
New "Load.223655c0a" phases=1 bus1=sx2936268c.1 kV=0.12 status=variable model=1 conn=wye kW=3.17055389285088 pf=0.97 Vminpu=0.88
New "Load.223655c0b" phases=1 bus1=sx2936268c.2 kV=0.12 status=variable model=1 conn=wye kW=2.92944610714912 pf=0.97 Vminpu=0.88
New "Load.21386877a0a" phases=1 bus1=sx2823611a.1 kV=0.12 status=variable model=1 conn=wye kW=0.766953251361847 pf=0.97 Vminpu=0.88
New "Load.21386877a0b" phases=1 bus1=sx2823611a.2 kV=0.12 status=variable model=1 conn=wye kW=4.55304674863815 pf=0.97 Vminpu=0.88
New "Load.20107636a0a" phases=1 bus1=sx3030204a.1 kV=0.12 status=variable model=1 conn=wye kW=2.01549320161343 pf=0.97 Vminpu=0.88
New "Load.20107636a0b" phases=1 bus1=sx3030204a.2 kV=0.12 status=variable model=1 conn=wye kW=6.85450679838657 pf=0.97 Vminpu=0.88
New "Load.226264795a0a" phases=1 bus1=sx3139366a.1 kV=0.12 status=variable model=1 conn=wye kW=3.26262494564056 pf=0.97 Vminpu=0.88
New "Load.226264795a0b" phases=1 bus1=sx3139366a.2 kV=0.12 status=variable model=1 conn=wye kW=5.60737505435944 pf=0.97 Vminpu=0.88
New "Load.227944551c0a" phases=1 bus1=sx3234149c.1 kV=0.12 status=fixed model=1 conn=wye kW=93.7317375540733 pf=0.97 Vminpu=0.88
New "Load.227944551c0b" phases=1 bus1=sx3234149c.2 kV=0.12 status=fixed model=1 conn=wye kW=7.96826244592667 pf=0.97 Vminpu=0.88
New "Load.227944551b0a" phases=1 bus1=sx3234149b.1 kV=0.12 status=fixed model=1 conn=wye kW=20.6629766285419 pf=0.97 Vminpu=0.88
New "Load.227944551b0b" phases=1 bus1=sx3234149b.2 kV=0.12 status=fixed model=1 conn=wye kW=76.5970233714581 pf=0.97 Vminpu=0.88
New "Load.227944551a0a" phases=1 bus1=sx3234149a.1 kV=0.12 status=fixed model=1 conn=wye kW=44.3019215297699 pf=0.97 Vminpu=0.88
New "Load.227944551a0b" phases=1 bus1=sx3234149a.2 kV=0.12 status=fixed model=1 conn=wye kW=44.3780784702301 pf=0.97 Vminpu=0.88
New "Load.260461b0a" phases=1 bus1=sx2861223b.1 kV=0.12 status=variable model=1 conn=wye kW=4.46131198048592 pf=0.97 Vminpu=0.88
New "Load.260461b0b" phases=1 bus1=sx2861223b.2 kV=0.12 status=variable model=1 conn=wye kW=5.26868801951408 pf=0.97 Vminpu=0.88
New "Load.2129466c0a" phases=1 bus1=sx3011293c.1 kV=0.12 status=variable model=1 conn=wye kW=17.5202069449425 pf=0.97 Vminpu=0.88
New "Load.2129466c0b" phases=1 bus1=sx3011293c.2 kV=0.12 status=variable model=1 conn=wye kW=2.81979305505753 pf=0.97 Vminpu=0.88
New "Load.2129466b0a" phases=1 bus1=sx3011293b.1 kV=0.12 status=variable model=1 conn=wye kW=0.0372173398733139 pf=0.97 Vminpu=0.88
New "Load.2129466b0b" phases=1 bus1=sx3011293b.2 kV=0.12 status=variable model=1 conn=wye kW=19.4127826601267 pf=0.97 Vminpu=0.88
New "Load.2129466a0a" phases=1 bus1=sx3011293a.1 kV=0.12 status=variable model=1 conn=wye kW=10.4856060552597 pf=0.97 Vminpu=0.88
New "Load.2129466a0b" phases=1 bus1=sx3011293a.2 kV=0.12 status=variable model=1 conn=wye kW=7.2543939447403 pf=0.97 Vminpu=0.88
New "Load.2129923c0a" phases=1 bus1=sx3123509c.1 kV=0.12 status=variable model=1 conn=wye kW=1.18685448765755 pf=0.97 Vminpu=0.88
New "Load.2129923c0b" phases=1 bus1=sx3123509c.2 kV=0.12 status=variable model=1 conn=wye kW=4.91314551234245 pf=0.97 Vminpu=0.88
New "Load.157715b0a" phases=1 bus1=sx2936275b.1 kV=0.12 status=variable model=1 conn=wye kW=2.04099854767323 pf=0.97 Vminpu=0.88
New "Load.157715b0b" phases=1 bus1=sx2936275b.2 kV=0.12 status=variable model=1 conn=wye kW=1.84900145232677 pf=0.97 Vminpu=0.88
New "Load.157716b0a" phases=1 bus1=sx3179674b.1 kV=0.12 status=variable model=1 conn=wye kW=8.17862984657288 pf=0.97 Vminpu=0.88
New "Load.157716b0b" phases=1 bus1=sx3179674b.2 kV=0.12 status=variable model=1 conn=wye kW=1.55137015342712 pf=0.97 Vminpu=0.88
New "Load.260463b0a" phases=1 bus1=sx3086075b.1 kV=0.12 status=variable model=1 conn=wye kW=1.2749899148941 pf=0.97 Vminpu=0.88
New "Load.260463b0b" phases=1 bus1=sx3086075b.2 kV=0.12 status=variable model=1 conn=wye kW=4.5650100851059 pf=0.97 Vminpu=0.88
New "Load.157717b0a" phases=1 bus1=sx2748840b.1 kV=0.12 status=variable model=1 conn=wye kW=1.39889852046967 pf=0.97 Vminpu=0.88
New "Load.157717b0b" phases=1 bus1=sx2748840b.2 kV=0.12 status=variable model=1 conn=wye kW=4.44110147953033 pf=0.97 Vminpu=0.88
New "Load.157718b0a" phases=1 bus1=sx3142099b.1 kV=0.12 status=variable model=1 conn=wye kW=9.14856792569161 pf=0.97 Vminpu=0.88
New "Load.157718b0b" phases=1 bus1=sx3142099b.2 kV=0.12 status=variable model=1 conn=wye kW=0.581432074308395 pf=0.97 Vminpu=0.88
New "Load.260457b0a" phases=1 bus1=sx3086079b.1 kV=0.12 status=variable model=1 conn=wye kW=2.90031623840332 pf=0.97 Vminpu=0.88
New "Load.260457b0b" phases=1 bus1=sx3086079b.2 kV=0.12 status=variable model=1 conn=wye kW=0.98968376159668 pf=0.97 Vminpu=0.88
New "Load.260458b0a" phases=1 bus1=sx2936276b.1 kV=0.12 status=variable model=1 conn=wye kW=0.501638917326927 pf=0.97 Vminpu=0.88
New "Load.260458b0b" phases=1 bus1=sx2936276b.2 kV=0.12 status=variable model=1 conn=wye kW=3.38836108267307 pf=0.97 Vminpu=0.88
New "Load.260630b0a" phases=1 bus1=sx2973833b.1 kV=0.12 status=variable model=1 conn=wye kW=5.81359171867371 pf=0.97 Vminpu=0.88
New "Load.260630b0b" phases=1 bus1=sx2973833b.2 kV=0.12 status=variable model=1 conn=wye kW=0.0264082813262938 pf=0.97 Vminpu=0.88
New "Load.260627a0a" phases=1 bus1=sx2992656a.1 kV=0.12 status=variable model=1 conn=wye kW=7.08315331339836 pf=0.97 Vminpu=0.88
New "Load.260627a0b" phases=1 bus1=sx2992656a.2 kV=0.12 status=variable model=1 conn=wye kW=6.21684668660164 pf=0.97 Vminpu=0.88
New "Load.260467a0a" phases=1 bus1=sx3104856a.1 kV=0.12 status=variable model=1 conn=wye kW=2.68280781507492 pf=0.97 Vminpu=0.88
New "Load.260467a0b" phases=1 bus1=sx3104856a.2 kV=0.12 status=variable model=1 conn=wye kW=2.63719218492508 pf=0.97 Vminpu=0.88
New "Load.260464a0a" phases=1 bus1=sx2730187a.1 kV=0.12 status=variable model=1 conn=wye kW=1.74190418720245 pf=0.97 Vminpu=0.88
New "Load.260464a0b" phases=1 bus1=sx2730187a.2 kV=0.12 status=variable model=1 conn=wye kW=11.5580958127975 pf=0.97 Vminpu=0.88
New "Load.2150292a0a" phases=1 bus1=sx2839305a.1 kV=0.12 status=variable model=1 conn=wye kW=3.32497780323029 pf=0.97 Vminpu=0.88
New "Load.2150292a0b" phases=1 bus1=sx2839305a.2 kV=0.12 status=variable model=1 conn=wye kW=1.99502219676971 pf=0.97 Vminpu=0.88
New "Load.260648a0a" phases=1 bus1=sx2898522a.1 kV=0.12 status=variable model=1 conn=wye kW=4.44832888424396 pf=0.97 Vminpu=0.88
New "Load.260648a0b" phases=1 bus1=sx2898522a.2 kV=0.12 status=variable model=1 conn=wye kW=4.42167111575603 pf=0.97 Vminpu=0.88
New "Load.260650a0a" phases=1 bus1=sx2692661a.1 kV=0.12 status=variable model=1 conn=wye kW=8.66688981890678 pf=0.97 Vminpu=0.88
New "Load.260650a0b" phases=1 bus1=sx2692661a.2 kV=0.12 status=variable model=1 conn=wye kW=0.203110181093216 pf=0.97 Vminpu=0.88
New "Load.260631a0a" phases=1 bus1=sx2786266a.1 kV=0.12 status=variable model=1 conn=wye kW=0.60653783082962 pf=0.97 Vminpu=0.88
New "Load.260631a0b" phases=1 bus1=sx2786266a.2 kV=0.12 status=variable model=1 conn=wye kW=4.71346216917038 pf=0.97 Vminpu=0.88
New "Load.260634a0a" phases=1 bus1=sx2842383a.1 kV=0.12 status=variable model=1 conn=wye kW=4.9697080206871 pf=0.97 Vminpu=0.88
New "Load.260634a0b" phases=1 bus1=sx2842383a.2 kV=0.12 status=variable model=1 conn=wye kW=0.350291979312897 pf=0.97 Vminpu=0.88
New "Load.260637c0a" phases=1 bus1=sx2842384c.1 kV=0.12 status=variable model=1 conn=wye kW=1.10073633551598 pf=0.97 Vminpu=0.88
New "Load.260637c0b" phases=1 bus1=sx2842384c.2 kV=0.12 status=variable model=1 conn=wye kW=2.96926366448402 pf=0.97 Vminpu=0.88
New "Load.260638c0a" phases=1 bus1=sx3160871c.1 kV=0.12 status=variable model=1 conn=wye kW=1.01580425083637 pf=0.97 Vminpu=0.88
New "Load.260638c0b" phases=1 bus1=sx3160871c.2 kV=0.12 status=variable model=1 conn=wye kW=9.15419574916363 pf=0.97 Vminpu=0.88
New "Load.260639c0a" phases=1 bus1=sx3030203c.1 kV=0.12 status=variable model=1 conn=wye kW=5.43215399980545 pf=0.97 Vminpu=0.88
New "Load.260639c0b" phases=1 bus1=sx3030203c.2 kV=0.12 status=variable model=1 conn=wye kW=4.73784600019455 pf=0.97 Vminpu=0.88
New "Load.260640c0a" phases=1 bus1=sx3179673c.1 kV=0.12 status=variable model=1 conn=wye kW=0.922551220655441 pf=0.97 Vminpu=0.88
New "Load.260640c0b" phases=1 bus1=sx3179673c.2 kV=0.12 status=variable model=1 conn=wye kW=5.17744877934456 pf=0.97 Vminpu=0.88
New "Load.260641b0a" phases=1 bus1=sx3048965b.1 kV=0.12 status=variable model=1 conn=wye kW=6.97178743958473 pf=0.97 Vminpu=0.88
New "Load.260641b0b" phases=1 bus1=sx3048965b.2 kV=0.12 status=variable model=1 conn=wye kW=7.61821256041527 pf=0.97 Vminpu=0.88
New "Load.260643a0a" phases=1 bus1=sx2692660a.1 kV=0.12 status=variable model=1 conn=wye kW=2.69235214114189 pf=0.97 Vminpu=0.88
New "Load.260643a0b" phases=1 bus1=sx2692660a.2 kV=0.12 status=variable model=1 conn=wye kW=15.0476478588581 pf=0.97 Vminpu=0.88
New "Load.21243817a0a" phases=1 bus1=sx2955076a.1 kV=0.12 status=variable model=1 conn=wye kW=4.93045683860779 pf=0.97 Vminpu=0.88
New "Load.21243817a0b" phases=1 bus1=sx2955076a.2 kV=0.12 status=variable model=1 conn=wye kW=0.389543161392212 pf=0.97 Vminpu=0.88
New "Load.260543c0a" phases=1 bus1=sx2955077c.1 kV=0.12 status=variable model=1 conn=wye kW=9.62785753726959 pf=0.97 Vminpu=0.88
New "Load.260543c0b" phases=1 bus1=sx2955077c.2 kV=0.12 status=variable model=1 conn=wye kW=0.542142462730407 pf=0.97 Vminpu=0.88
New "Load.260551c0a" phases=1 bus1=sx3160872c.1 kV=0.12 status=variable model=1 conn=wye kW=10.9791953384876 pf=0.97 Vminpu=0.88
New "Load.260551c0b" phases=1 bus1=sx3160872c.2 kV=0.12 status=variable model=1 conn=wye kW=4.28080466151238 pf=0.97 Vminpu=0.88
New "Load.260558c0a" phases=1 bus1=sx3160861c.1 kV=0.12 status=variable model=1 conn=wye kW=1.90033051133156 pf=0.97 Vminpu=0.88
New "Load.260558c0b" phases=1 bus1=sx3160861c.2 kV=0.12 status=variable model=1 conn=wye kW=2.16966948866844 pf=0.97 Vminpu=0.88
New "Load.260562a0a" phases=1 bus1=sx3251799a.1 kV=0.12 status=variable model=1 conn=wye kW=4.87104940414429 pf=0.97 Vminpu=0.88
New "Load.260562a0b" phases=1 bus1=sx3251799a.2 kV=0.12 status=variable model=1 conn=wye kW=8.42895059585571 pf=0.97 Vminpu=0.88
New "Load.226194419c0a" phases=1 bus1=sx3214071c.1 kV=0.12 status=variable model=1 conn=wye kW=2.13793476462364 pf=0.97 Vminpu=0.88
New "Load.226194419c0b" phases=1 bus1=sx3214071c.2 kV=0.12 status=variable model=1 conn=wye kW=8.03206523537636 pf=0.97 Vminpu=0.88
New "Load.260572c0a" phases=1 bus1=sx3236004c.1 kV=0.12 status=variable model=1 conn=wye kW=2.25342886447906 pf=0.97 Vminpu=0.88
New "Load.260572c0b" phases=1 bus1=sx3236004c.2 kV=0.12 status=variable model=1 conn=wye kW=3.84657113552093 pf=0.97 Vminpu=0.88
New "Load.260567c0a" phases=1 bus1=sx2936211c.1 kV=0.12 status=variable model=1 conn=wye kW=4.17217430472374 pf=0.97 Vminpu=0.88
New "Load.260567c0b" phases=1 bus1=sx2936211c.2 kV=0.12 status=variable model=1 conn=wye kW=1.92782569527626 pf=0.97 Vminpu=0.88
New "Load.260568c0a" phases=1 bus1=sx2842329c.1 kV=0.12 status=variable model=1 conn=wye kW=3.30933228731155 pf=0.97 Vminpu=0.88
New "Load.260568c0b" phases=1 bus1=sx2842329c.2 kV=0.12 status=variable model=1 conn=wye kW=2.79066771268845 pf=0.97 Vminpu=0.88
New "Load.226194421c0a" phases=1 bus1=sx3214069c.1 kV=0.12 status=variable model=1 conn=wye kW=7.6876917797327 pf=0.97 Vminpu=0.88
New "Load.226194421c0b" phases=1 bus1=sx3214069c.2 kV=0.12 status=variable model=1 conn=wye kW=2.4823082202673 pf=0.97 Vminpu=0.88
New "Load.21474711c0a" phases=1 bus1=sx2861197c.1 kV=0.12 status=variable model=1 conn=wye kW=3.30569785833359 pf=0.97 Vminpu=0.88
New "Load.21474711c0b" phases=1 bus1=sx2861197c.2 kV=0.12 status=variable model=1 conn=wye kW=2.79430214166641 pf=0.97 Vminpu=0.88
New "Load.260573c0a" phases=1 bus1=sx3160896c.1 kV=0.12 status=variable model=1 conn=wye kW=3.4484604537487 pf=0.97 Vminpu=0.88
New "Load.260573c0b" phases=1 bus1=sx3160896c.2 kV=0.12 status=variable model=1 conn=wye kW=2.6515395462513 pf=0.97 Vminpu=0.88
New "Load.21386065c0a" phases=1 bus1=sx2917255c.1 kV=0.12 status=variable model=1 conn=wye kW=3.86513945102692 pf=0.97 Vminpu=0.88
New "Load.21386065c0b" phases=1 bus1=sx2917255c.2 kV=0.12 status=variable model=1 conn=wye kW=6.30486054897308 pf=0.97 Vminpu=0.88
New "Load.260569c0a" phases=1 bus1=sx3104796c.1 kV=0.12 status=variable model=1 conn=wye kW=7.31469514667988 pf=0.97 Vminpu=0.88
New "Load.260569c0b" phases=1 bus1=sx3104796c.2 kV=0.12 status=variable model=1 conn=wye kW=2.85530485332012 pf=0.97 Vminpu=0.88
New "Load.260574c0a" phases=1 bus1=sx3123452c.1 kV=0.12 status=variable model=1 conn=wye kW=4.83920038104057 pf=0.97 Vminpu=0.88
New "Load.260574c0b" phases=1 bus1=sx3123452c.2 kV=0.12 status=variable model=1 conn=wye kW=5.33079961895943 pf=0.97 Vminpu=0.88
New "Load.260577c0a" phases=1 bus1=sx2767341c.1 kV=0.12 status=variable model=1 conn=wye kW=1.47948966145515 pf=0.97 Vminpu=0.88
New "Load.260577c0b" phases=1 bus1=sx2767341c.2 kV=0.12 status=variable model=1 conn=wye kW=13.7805103385448 pf=0.97 Vminpu=0.88
New "Load.260598a0a" phases=1 bus1=sx3067478a.1 kV=0.12 status=variable model=1 conn=wye kW=1.332736068964 pf=0.97 Vminpu=0.88
New "Load.260598a0b" phases=1 bus1=sx3067478a.2 kV=0.12 status=variable model=1 conn=wye kW=11.967263931036 pf=0.97 Vminpu=0.88
New "Load.260601c0a" phases=1 bus1=sx2730149c.1 kV=0.12 status=variable model=1 conn=wye kW=3.65142891407013 pf=0.97 Vminpu=0.88
New "Load.260601c0b" phases=1 bus1=sx2730149c.2 kV=0.12 status=variable model=1 conn=wye kW=2.44857108592987 pf=0.97 Vminpu=0.88
New "Load.260602b0a" phases=1 bus1=sx2989566b.1 kV=0.12 status=variable model=1 conn=wye kW=4.44756553173065 pf=0.97 Vminpu=0.88
New "Load.260602b0b" phases=1 bus1=sx2989566b.2 kV=0.12 status=variable model=1 conn=wye kW=1.39243446826935 pf=0.97 Vminpu=0.88
New "Load.337614b0a" phases=1 bus1=sx2952003b.1 kV=0.12 status=variable model=1 conn=wye kW=1.18597470343113 pf=0.97 Vminpu=0.88
New "Load.337614b0b" phases=1 bus1=sx2952003b.2 kV=0.12 status=variable model=1 conn=wye kW=8.54402529656887 pf=0.97 Vminpu=0.88
New "Load.227760021c0a" phases=1 bus1=sx2803199c.1 kV=0.12 status=variable model=1 conn=wye kW=8.694455473423 pf=0.97 Vminpu=0.88
New "Load.227760021c0b" phases=1 bus1=sx2803199c.2 kV=0.12 status=variable model=1 conn=wye kW=11.645544526577 pf=0.97 Vminpu=0.88
New "Load.227760021b0a" phases=1 bus1=sx2803199b.1 kV=0.12 status=variable model=1 conn=wye kW=18.8070685118437 pf=0.97 Vminpu=0.88
New "Load.227760021b0b" phases=1 bus1=sx2803199b.2 kV=0.12 status=variable model=1 conn=wye kW=0.642931488156318 pf=0.97 Vminpu=0.88
New "Load.227760021a0a" phases=1 bus1=sx2803199a.1 kV=0.12 status=variable model=1 conn=wye kW=6.33390524864197 pf=0.97 Vminpu=0.88
New "Load.227760021a0b" phases=1 bus1=sx2803199a.2 kV=0.12 status=variable model=1 conn=wye kW=11.406094751358 pf=0.97 Vminpu=0.88
New "Load.21482181a0a" phases=1 bus1=sx3254237a.1 kV=0.12 status=variable model=1 conn=wye kW=0.0111702299118042 pf=0.97 Vminpu=0.88
New "Load.21482181a0b" phases=1 bus1=sx3254237a.2 kV=0.12 status=variable model=1 conn=wye kW=8.85882977008819 pf=0.97 Vminpu=0.88
New "Load.227187012c0a" phases=1 bus1=sx2896685c.1 kV=0.12 status=variable model=1 conn=wye kW=3.11064108014107 pf=0.97 Vminpu=0.88
New "Load.227187012c0b" phases=1 bus1=sx2896685c.2 kV=0.12 status=variable model=1 conn=wye kW=2.98935891985893 pf=0.97 Vminpu=0.88
New "Load.227187012b0a" phases=1 bus1=sx2896685b.1 kV=0.12 status=variable model=1 conn=wye kW=2.25782137870789 pf=0.97 Vminpu=0.88
New "Load.227187012b0b" phases=1 bus1=sx2896685b.2 kV=0.12 status=variable model=1 conn=wye kW=3.58217862129211 pf=0.97 Vminpu=0.88
New "Load.227187012a0a" phases=1 bus1=sx2896685a.1 kV=0.12 status=variable model=1 conn=wye kW=0.620885188579559 pf=0.97 Vminpu=0.88
New "Load.227187012a0b" phases=1 bus1=sx2896685a.2 kV=0.12 status=variable model=1 conn=wye kW=4.69911481142044 pf=0.97 Vminpu=0.88
New "Load.337619c0a" phases=1 bus1=sx2990826c.1 kV=0.12 status=variable model=1 conn=wye kW=8.99699831843376 pf=0.97 Vminpu=0.88
New "Load.337619c0b" phases=1 bus1=sx2990826c.2 kV=0.12 status=variable model=1 conn=wye kW=1.17300168156624 pf=0.97 Vminpu=0.88
New "Load.337619b0a" phases=1 bus1=sx2990826b.1 kV=0.12 status=variable model=1 conn=wye kW=2.31539063155651 pf=0.97 Vminpu=0.88
New "Load.337619b0b" phases=1 bus1=sx2990826b.2 kV=0.12 status=variable model=1 conn=wye kW=7.41460936844349 pf=0.97 Vminpu=0.88
New "Load.337619a0a" phases=1 bus1=sx2990826a.1 kV=0.12 status=variable model=1 conn=wye kW=8.75177785634994 pf=0.97 Vminpu=0.88
New "Load.337619a0b" phases=1 bus1=sx2990826a.2 kV=0.12 status=variable model=1 conn=wye kW=0.118222143650055 pf=0.97 Vminpu=0.88
New "Load.337729c0a" phases=1 bus1=sx2728247c.1 kV=0.12 status=variable model=1 conn=wye kW=3.63821730136871 pf=0.97 Vminpu=0.88
New "Load.337729c0b" phases=1 bus1=sx2728247c.2 kV=0.12 status=variable model=1 conn=wye kW=0.431782698631287 pf=0.97 Vminpu=0.88
New "Load.337729b0a" phases=1 bus1=sx2728247b.1 kV=0.12 status=variable model=1 conn=wye kW=0.961845992207527 pf=0.97 Vminpu=0.88
New "Load.337729b0b" phases=1 bus1=sx2728247b.2 kV=0.12 status=variable model=1 conn=wye kW=8.76815400779247 pf=0.97 Vminpu=0.88
New "Load.337729a0a" phases=1 bus1=sx2728247a.1 kV=0.12 status=variable model=1 conn=wye kW=1.70812492966652 pf=0.97 Vminpu=0.88
New "Load.337729a0b" phases=1 bus1=sx2728247a.2 kV=0.12 status=variable model=1 conn=wye kW=1.84187507033348 pf=0.97 Vminpu=0.88
New "Load.227921427c0a" phases=1 bus1=sx2915542c.1 kV=0.12 status=variable model=1 conn=wye kW=12.5319616377354 pf=0.97 Vminpu=0.88
New "Load.227921427c0b" phases=1 bus1=sx2915542c.2 kV=0.12 status=variable model=1 conn=wye kW=7.80803836226463 pf=0.97 Vminpu=0.88
New "Load.227921427b0a" phases=1 bus1=sx2915542b.1 kV=0.12 status=variable model=1 conn=wye kW=10.5271523296833 pf=0.97 Vminpu=0.88
New "Load.227921427b0b" phases=1 bus1=sx2915542b.2 kV=0.12 status=variable model=1 conn=wye kW=8.9228476703167 pf=0.97 Vminpu=0.88
...
